@<TRIPOS>MOLECULE
ZINC03830876
   24    24     0     0     0
SMALL
USER_CHARGES
2,5-bis(hydroxymethyl)tetrahydrofuran-2,3,4-triol
@<TRIPOS>ATOM
      1 C1         -1.2714    0.4555   -2.0746 C.3       1 <0>         0.0779
      2 C2         -0.8081    1.6211   -1.1984 C.3       1 <0>         0.0496
      3 H1         -0.1849    2.2985   -1.7822 H         1 <0>         0.0877
      4 C3         -0.0127    1.0858    0.0080 C.3       1 <0>         0.0512
      5 H2          0.0021   -0.0041    0.0020 H         1 <0>         0.0831
      6 C4         -0.7884    1.6104    1.2408 C.3       1 <0>         0.1009
      7 H3         -0.1022    1.9540    2.0149 H         1 <0>         0.1021
      8 C5         -1.5871    2.7971    0.6380 C.3       1 <0>         0.2842
      9 O1         -1.9465    2.3290   -0.6796 O.3       1 <0>        -0.3499
     10 C6         -2.8399    3.0853    1.4677 C.3       1 <0>         0.0718
     11 O2         -3.6045    4.1132    0.8346 O.3       1 <0>        -0.5679
     12 O3         -0.7641    3.9621    0.5511 O.3       1 <0>        -0.5494
     13 O4         -1.6710    0.6094    1.7518 O.3       1 <0>        -0.5411
     14 O5          1.3194    1.6029   -0.0019 O.3       1 <0>        -0.5430
     15 O6         -1.9060    0.9654   -3.2491 O.3       1 <0>        -0.5631
     16 H4         -0.4105   -0.1489   -2.3602 H         1 <0>         0.0589
     17 H5         -1.9783   -0.1593   -1.5175 H         1 <0>         0.0580
     18 H6         -3.4416    2.1796    1.5438 H         1 <0>         0.0751
     19 H7         -2.5476    3.4122    2.4656 H         1 <0>         0.0688
     20 H8         -4.4151    4.3480    1.3068 H         1 <0>         0.3866
     21 H9         -1.1916    4.7143    0.1193 H         1 <0>         0.3974
     22 H10        -1.2230   -0.1919    2.0557 H         1 <0>         0.3922
     23 H11         1.8420    1.3289   -0.7680 H         1 <0>         0.3863
     24 H12        -2.2257    0.2805   -3.8522 H         1 <0>         0.3826
@<TRIPOS>BOND
     1    1    2 1
     2    1   15 1
     3    1   16 1
     4    1   17 1
     5    2    3 1
     6    2    9 1
     7    2    4 1
     8    4    5 1
     9    4    6 1
    10    4   14 1
    11    6    7 1
    12    6    8 1
    13    6   13 1
    14    8    9 1
    15    8   10 1
    16    8   12 1
    17   10   11 1
    18   10   18 1
    19   10   19 1
    20   11   20 1
    21   12   21 1
    22   13   22 1
    23   14   23 1
    24   15   24 1
