@<TRIPOS>MOLECULE
ZINC00895040
   24    24     0     0     0
SMALL
USER_CHARGES
2,5-bis(hydroxymethyl)tetrahydrofuran-2,3,4-triol
@<TRIPOS>ATOM
      1 C1         -3.0046   -1.0693    3.2718 C.3       1 <0>         0.0820
      2 C2         -1.9300   -1.1595    2.1864 C.3       1 <0>         0.0505
      3 H1         -0.9348   -1.1138    2.6285 H         1 <0>         0.0908
      4 C3         -2.1023   -2.4556    1.3542 C.3       1 <0>         0.0417
      5 H2         -3.1575   -2.6842    1.2043 H         1 <0>         0.0942
      6 C4         -1.4233   -2.0746    0.0122 C.3       1 <0>         0.1024
      7 H3         -0.4003   -2.4495   -0.0186 H         1 <0>         0.0935
      8 C5         -1.4333   -0.5336    0.0129 C.3       1 <0>         0.2902
      9 O1         -2.1022   -0.1081    1.2119 O.3       1 <0>        -0.3568
     10 C6          0.0021   -0.0041    0.0020 C.3       1 <0>         0.0419
     11 O2         -0.0173    1.4248    0.0099 O.3       1 <0>        -0.5603
     12 O3         -2.1375   -0.0518   -1.1334 O.3       1 <0>        -0.5157
     13 O4         -2.1757   -2.5792   -1.0929 O.3       1 <0>        -0.5270
     14 O5         -1.4284   -3.5528    1.9738 O.3       1 <0>        -0.5510
     15 O6         -2.8157    0.1267    4.0309 O.3       1 <0>        -0.5619
     16 H4         -3.9903   -1.0526    2.8068 H         1 <0>         0.0595
     17 H5         -2.9285   -1.9339    3.9312 H         1 <0>         0.0628
     18 H6          0.5123   -0.3556   -0.8948 H         1 <0>         0.0694
     19 H7          0.5293   -0.3651    0.8851 H         1 <0>         0.0596
     20 H8          0.8606    1.8301    0.0037 H         1 <0>         0.3874
     21 H9         -2.1840    0.9124   -1.1899 H         1 <0>         0.3899
     22 H10        -2.2029   -3.5446   -1.1421 H         1 <0>         0.3843
     23 H11        -1.7603   -3.7711    2.8555 H         1 <0>         0.3882
     24 H12        -3.4631    0.2497    4.7386 H         1 <0>         0.3845
@<TRIPOS>BOND
     1    1    2 1
     2    1   15 1
     3    1   16 1
     4    1   17 1
     5    2    3 1
     6    2    9 1
     7    2    4 1
     8    4    5 1
     9    4    6 1
    10    4   14 1
    11    6    7 1
    12    6    8 1
    13    6   13 1
    14    8    9 1
    15    8   10 1
    16    8   12 1
    17   10   11 1
    18   10   18 1
    19   10   19 1
    20   11   20 1
    21   12   21 1
    22   13   22 1
    23   14   23 1
    24   15   24 1
